omf/solvers/matpower7.0/data/test/GO500v2_perfect_0.raw
0,   100.00, 33, 0, 1, 60.00     / PSS(R)E-33.7    THU, MAR 15 2018  17:28
 0,    100.00, 30, 0, 0, 60.00       / SEPTEMBER 06, 2016 22
 0,    100.00, 30, 0, 0, 60.00       / SEPTEMBER 06, 2016 22
     1,'A1          ', 345.0000,1,   1,   1,   1,0.97596, -11.1124,1.10000,0.90000,1.10000,0.90000
     2,'A2          ', 345.0000,1,   1,   1,   1,1.04276, -10.2178,1.10000,0.90000,1.10000,0.90000
     3,'A3          ', 500.0000,2,   1,   1,   1,0.99776,  -8.8882,1.10000,0.90000,1.10000,0.90000
     4,'A4          ', 500.0000,2,   1,   1,   1,0.99220,  -8.3788,1.10000,0.90000,1.10000,0.90000
     5,'A5          ', 500.0000,1,   1,   1,   1,0.99230,  -8.3827,1.10000,0.90000,1.10000,0.90000
     6,'A6          ', 500.0000,1,   1,   1,   1,0.95886, -14.9029,1.10000,0.90000,1.10000,0.90000
     7,'A7          ', 345.0000,1,   1,   1,   1,0.96566, -13.5327,1.10000,0.90000,1.10000,0.90000
     8,'A8          ', 345.0000,1,   1,   1,   1,0.96568, -13.5347,1.10000,0.90000,1.10000,0.90000
     9,'A9          ', 345.0000,2,   1,   1,   1,0.98364,  -9.9899,1.10000,0.90000,1.10000,0.90000
    10,'A10         ', 345.0000,2,   1,   1,   1,0.98360,  -9.9863,1.10000,0.90000,1.10000,0.90000
    11,'A11         ', 345.0000,1,   1,   1,   1,0.99026,  -9.4696,1.10000,0.90000,1.10000,0.90000
    12,'A12         ', 500.0000,1,   1,   1,   1,1.00110,  -8.3577,1.10000,0.90000,1.10000,0.90000
    13,'A13         ', 500.0000,1,   1,   1,   1,1.01025,  -9.0547,1.10000,0.90000,1.10000,0.90000
    14,'A14         ', 500.0000,1,   1,   1,   1,1.01022,  -9.0539,1.10000,0.90000,1.10000,0.90000
    15,'A15         ', 500.0000,2,   1,   1,   1,1.01125,  -8.1668,1.10000,0.90000,1.10000,0.90000
    16,'A16         ', 500.0000,2,   1,   1,   1,1.01125,  -8.1682,1.10000,0.90000,1.10000,0.90000
    17,'A17         ', 345.0000,1,   1,   1,   1,1.00479, -11.8800,1.10000,0.90000,1.10000,0.90000
    18,'A18         ', 138.0000,1,   1,   1,   1,1.02380, -12.3034,1.10000,0.90000,1.10000,0.90000
    19,'A19         ', 138.0000,2,   1,   1,   1,1.01909, -14.1294,1.10000,0.90000,1.10000,0.90000
    20,'A20         ', 138.0000,2,   1,   1,   1,1.01889, -14.1351,1.10000,0.90000,1.10000,0.90000
    21,'A21         ', 138.0000,1,   1,   1,   1,1.02291, -14.6289,1.10000,0.90000,1.10000,0.90000
    22,'A22         ', 138.0000,2,   1,   1,   1,1.02182, -13.2894,1.10000,0.90000,1.10000,0.90000
    23,'A23         ', 138.0000,1,   1,   1,   1,1.02682, -14.4667,1.10000,0.90000,1.10000,0.90000
    24,'A24         ',  32.0000,1,   1,   1,   1,0.97597, -15.0412,1.10000,0.90000,1.10000,0.90000
    25,'A25         ', 138.0000,1,   1,   1,   1,1.02206, -14.6283,1.10000,0.90000,1.10000,0.90000
    26,'A26         ', 138.0000,1,   1,   1,   1,1.02488, -15.3981,1.10000,0.90000,1.10000,0.90000
    27,'A27         ', 138.0000,1,   1,   1,   1,1.01379, -14.6513,1.10000,0.90000,1.10000,0.90000
    28,'A28         ', 138.0000,1,   1,   1,   1,1.01378, -14.6442,1.10000,0.90000,1.10000,0.90000
    29,'A29         ', 138.0000,2,   1,   1,   1,1.02182, -12.4357,1.10000,0.90000,1.10000,0.90000
    30,'A30         ', 138.0000,2,   1,   1,   1,1.02455, -12.3726,1.10000,0.90000,1.10000,0.90000
    31,'A31         ', 138.0000,1,   1,   1,   1,1.01275, -14.8169,1.10000,0.90000,1.10000,0.90000
    32,'A32         ', 138.0000,1,   1,   1,   1,1.01344, -14.6782,1.10000,0.90000,1.10000,0.90000
    33,'A33         ',  16.0000,1,   1,   1,   1,0.99899,  -9.4655,1.10000,0.90000,1.10000,0.90000
    34,'A34         ', 138.0000,1,   1,   1,   1,1.02113, -14.6737,1.10000,0.90000,1.10000,0.90000
    35,'A35         ', 138.0000,1,   1,   1,   1,1.02384, -15.5062,1.10000,0.90000,1.10000,0.90000
    36,'A36         ', 138.0000,1,   1,   1,   1,1.01453, -14.5885,1.10000,0.90000,1.10000,0.90000
    37,'A37         ', 138.0000,2,   1,   1,   1,1.02182, -13.0477,1.10000,0.90000,1.10000,0.90000
    38,'A38         ', 138.0000,1,   1,   1,   1,1.02128, -13.0378,1.10000,0.90000,1.10000,0.90000
    39,'A39         ', 138.0000,1,   1,   1,   1,1.02599, -14.5259,1.10000,0.90000,1.10000,0.90000
    40,'A40         ', 138.0000,1,   1,   1,   1,1.02590, -14.5351,1.10000,0.90000,1.10000,0.90000
    41,'A41         ', 138.0000,1,   1,   1,   1,1.02583, -14.5393,1.10000,0.90000,1.10000,0.90000
    42,'A42         ', 138.0000,1,   1,   1,   1,1.01561, -14.4787,1.10000,0.90000,1.10000,0.90000
    43,'A43         ', 138.0000,1,   1,   1,   1,1.02208, -14.9684,1.10000,0.90000,1.10000,0.90000
    44,'A44         ', 138.0000,2,   1,   1,   1,1.02455, -11.3009,1.10000,0.90000,1.10000,0.90000
    45,'A45         ', 138.0000,2,   1,   1,   1,1.02182, -14.4590,1.10000,0.90000,1.10000,0.90000
    46,'A46         ', 138.0000,1,   1,   1,   1,1.01304, -14.8727,1.10000,0.90000,1.10000,0.90000
    47,'A47         ', 138.0000,1,   1,   1,   1,1.01707, -13.5782,1.10000,0.90000,1.10000,0.90000
    48,'A48         ', 138.0000,1,   1,   1,   1,1.01789, -13.9746,1.10000,0.90000,1.10000,0.90000
    49,'A49         ', 138.0000,2,   1,   1,   1,1.02182, -14.6651,1.10000,0.90000,1.10000,0.90000
    50,'A50         ', 138.0000,1,   1,   1,   1,1.03986, -12.0953,1.10000,0.90000,1.10000,0.90000
    51,'A51         ', 138.0000,1,   1,   1,   1,1.02309, -13.3773,1.10000,0.90000,1.10000,0.90000
    52,'A52         ', 138.0000,1,   1,   1,   1,1.04610, -11.4646,1.10000,0.90000,1.10000,0.90000
    53,'A53         ', 138.0000,1,   1,   1,   1,1.04599, -11.4942,1.10000,0.90000,1.10000,0.90000
    54,'A54         ', 138.0000,2,   1,   1,   1,1.02455, -13.3172,1.10000,0.90000,1.10000,0.90000
    55,'A55         ', 138.0000,1,   1,   1,   1,1.01350, -14.6697,1.10000,0.90000,1.10000,0.90000
    56,'A56         ', 138.0000,1,   1,   1,   1,1.01403, -14.6303,1.10000,0.90000,1.10000,0.90000
    57,'A57         ', 138.0000,1,   1,   1,   1,1.04086, -11.9182,1.10000,0.90000,1.10000,0.90000
    58,'A58         ', 138.0000,2,   1,   1,   1,1.02182, -12.7887,1.10000,0.90000,1.10000,0.90000
    59,'A59         ', 138.0000,1,   1,   1,   1,1.01947, -12.8955,1.10000,0.90000,1.10000,0.90000
    60,'A60         ', 138.0000,2,   1,   1,   1,1.02182, -12.7179,1.10000,0.90000,1.10000,0.90000
    61,'A61         ', 138.0000,1,   1,   1,   1,1.01463, -14.8523,1.10000,0.90000,1.10000,0.90000
    62,'A62         ', 138.0000,1,   1,   1,   1,1.02121, -14.6640,1.10000,0.90000,1.10000,0.90000
    63,'A63         ', 138.0000,1,   1,   1,   1,1.02910, -11.3121,1.10000,0.90000,1.10000,0.90000
    64,'A64         ', 138.0000,1,   1,   1,   1,1.02880, -11.2973,1.10000,0.90000,1.10000,0.90000
    65,'A65         ', 500.0000,1,   1,   1,   1,0.99756,  -8.3279,1.10000,0.90000,1.10000,0.90000
    66,'B66         ', 345.0000,1,   2,   2,   1,0.98571,  -9.8053,1.10000,0.90000,1.10000,0.90000
    67,'B67         ', 345.0000,1,   2,   2,   1,1.04277, -10.1536,1.10000,0.90000,1.10000,0.90000
    68,'B68         ', 500.0000,2,   2,   2,   1,0.99784,  -8.8993,1.10000,0.90000,1.10000,0.90000
    69,'B69         ', 500.0000,2,   2,   2,   1,0.99207,  -8.3281,1.10000,0.90000,1.10000,0.90000
    70,'B70         ', 500.0000,1,   2,   2,   1,0.99217,  -8.3325,1.10000,0.90000,1.10000,0.90000
    71,'B71         ', 500.0000,1,   2,   2,   1,0.95666, -14.0202,1.10000,0.90000,1.10000,0.90000
    72,'B72         ', 345.0000,1,   2,   2,   1,0.96561, -13.0489,1.10000,0.90000,1.10000,0.90000
    73,'B73         ', 345.0000,1,   2,   2,   1,0.96562, -13.0511,1.10000,0.90000,1.10000,0.90000
    74,'B74         ', 345.0000,2,   2,   2,   1,0.98371,  -9.3986,1.10000,0.90000,1.10000,0.90000
    75,'B75         ', 345.0000,2,   2,   2,   1,0.98378,  -9.3999,1.10000,0.90000,1.10000,0.90000
    76,'B76         ', 345.0000,1,   2,   2,   1,0.98466, -10.1490,1.10000,0.90000,1.10000,0.90000
    77,'B77         ', 500.0000,1,   2,   2,   1,1.00113,  -8.3821,1.10000,0.90000,1.10000,0.90000
    78,'B78         ', 500.0000,1,   2,   2,   1,1.01030,  -9.0466,1.10000,0.90000,1.10000,0.90000
    79,'B79         ', 500.0000,1,   2,   2,   1,1.01026,  -9.0460,1.10000,0.90000,1.10000,0.90000
    80,'B80         ', 500.0000,2,   2,   2,   1,1.01125,  -8.1374,1.10000,0.90000,1.10000,0.90000
    81,'B81         ', 500.0000,2,   2,   2,   1,1.01125,  -8.1387,1.10000,0.90000,1.10000,0.90000
    82,'B82         ', 345.0000,1,   2,   2,   1,1.00481, -11.7083,1.10000,0.90000,1.10000,0.90000
    83,'B83         ', 138.0000,1,   2,   2,   1,1.02372, -12.6151,1.10000,0.90000,1.10000,0.90000
    84,'B84         ', 138.0000,2,   2,   2,   1,1.01909, -13.8526,1.10000,0.90000,1.10000,0.90000
    85,'B85         ', 138.0000,2,   2,   2,   1,1.01890, -13.8599,1.10000,0.90000,1.10000,0.90000
    86,'B86         ', 138.0000,1,   2,   2,   1,1.02196, -13.9801,1.10000,0.90000,1.10000,0.90000
    87,'B87         ', 138.0000,2,   2,   2,   1,1.02182, -14.4936,1.10000,0.90000,1.10000,0.90000
    88,'B88         ', 138.0000,1,   2,   2,   1,1.02481, -13.6343,1.10000,0.90000,1.10000,0.90000
    89,'B89         ',  32.0000,1,   2,   2,   1,0.97373, -14.1586,1.10000,0.90000,1.10000,0.90000
    90,'B90         ', 138.0000,1,   2,   2,   1,1.02176, -14.1293,1.10000,0.90000,1.10000,0.90000
    91,'B91         ', 138.0000,1,   2,   2,   1,1.02439, -14.7902,1.10000,0.90000,1.10000,0.90000
    92,'B92         ', 138.0000,1,   2,   2,   1,1.01382, -14.3289,1.10000,0.90000,1.10000,0.90000
    93,'B93         ', 138.0000,1,   2,   2,   1,1.01382, -14.3222,1.10000,0.90000,1.10000,0.90000
    94,'B94         ', 138.0000,2,   2,   2,   1,1.02182, -12.3772,1.10000,0.90000,1.10000,0.90000
    95,'B95         ', 138.0000,2,   2,   2,   1,1.02455, -12.3196,1.10000,0.90000,1.10000,0.90000
    96,'B96         ', 138.0000,1,   2,   2,   1,1.01278, -14.4730,1.10000,0.90000,1.10000,0.90000
    97,'B97         ', 138.0000,1,   2,   2,   1,1.01348, -14.3559,1.10000,0.90000,1.10000,0.90000
    98,'B98         ',  16.0000,1,   2,   2,   1,0.99334, -10.1449,1.10000,0.90000,1.10000,0.90000
    99,'B99         ', 138.0000,1,   2,   2,   1,1.02086, -14.1864,1.10000,0.90000,1.10000,0.90000
   100,'B100        ', 138.0000,1,   2,   2,   1,1.02335, -14.8984,1.10000,0.90000,1.10000,0.90000
   101,'B101        ', 138.0000,1,   2,   2,   1,1.01457, -14.2776,1.10000,0.90000,1.10000,0.90000
   102,'B102        ', 138.0000,2,   2,   2,   1,1.02182, -13.6543,1.10000,0.90000,1.10000,0.90000
   103,'B103        ', 138.0000,1,   2,   2,   1,1.02115, -13.6055,1.10000,0.90000,1.10000,0.90000
   104,'B104        ', 138.0000,1,   2,   2,   1,1.02432, -13.7230,1.10000,0.90000,1.10000,0.90000
   105,'B105        ', 138.0000,1,   2,   2,   1,1.02431, -13.7367,1.10000,0.90000,1.10000,0.90000
   106,'B106        ', 138.0000,1,   2,   2,   1,1.02420, -13.7387,1.10000,0.90000,1.10000,0.90000
   107,'B107        ', 138.0000,1,   2,   2,   1,1.01564, -14.1781,1.10000,0.90000,1.10000,0.90000
   108,'B108        ', 138.0000,1,   2,   2,   1,1.02593, -13.7331,1.10000,0.90000,1.10000,0.90000
   109,'B109        ', 138.0000,2,   2,   2,   1,1.02455, -11.3266,1.10000,0.90000,1.10000,0.90000
   110,'B110        ', 138.0000,2,   2,   2,   1,1.02182, -13.6603,1.10000,0.90000,1.10000,0.90000
   111,'B111        ', 138.0000,1,   2,   2,   1,1.01305, -14.5126,1.10000,0.90000,1.10000,0.90000
   112,'B112        ', 138.0000,1,   2,   2,   1,1.01721, -13.4048,1.10000,0.90000,1.10000,0.90000
   113,'B113        ', 138.0000,1,   2,   2,   1,1.01795, -13.7341,1.10000,0.90000,1.10000,0.90000
   114,'B114        ', 138.0000,2,   2,   2,   1,1.02182, -14.1710,1.10000,0.90000,1.10000,0.90000
   115,'B115        ', 138.0000,1,   2,   2,   1,1.03991, -12.0869,1.10000,0.90000,1.10000,0.90000
   116,'B116        ', 138.0000,1,   2,   2,   1,1.02268, -15.2023,1.10000,0.90000,1.10000,0.90000
   117,'B117        ', 138.0000,1,   2,   2,   1,1.04614, -11.4564,1.10000,0.90000,1.10000,0.90000
   118,'B118        ', 138.0000,1,   2,   2,   1,1.04603, -11.4859,1.10000,0.90000,1.10000,0.90000
   119,'B119        ', 138.0000,2,   2,   2,   1,1.02455, -15.4112,1.10000,0.90000,1.10000,0.90000
   120,'B120        ', 138.0000,1,   2,   2,   1,1.01354, -14.3476,1.10000,0.90000,1.10000,0.90000
   121,'B121        ', 138.0000,1,   2,   2,   1,1.01407, -14.3117,1.10000,0.90000,1.10000,0.90000
   122,'B122        ', 138.0000,1,   2,   2,   1,1.04091, -11.9099,1.10000,0.90000,1.10000,0.90000
   123,'B123        ', 138.0000,2,   2,   2,   1,1.02182, -12.7145,1.10000,0.90000,1.10000,0.90000
   124,'B124        ', 138.0000,1,   2,   2,   1,1.01959, -12.7955,1.10000,0.90000,1.10000,0.90000
   125,'B125        ', 138.0000,2,   2,   2,   1,1.02182, -13.0921,1.10000,0.90000,1.10000,0.90000
   126,'B126        ', 138.0000,1,   2,   2,   1,1.01455, -14.4678,1.10000,0.90000,1.10000,0.90000
   127,'B127        ', 138.0000,1,   2,   2,   1,1.02094, -14.1767,1.10000,0.90000,1.10000,0.90000
   128,'B128        ', 138.0000,1,   2,   2,   1,1.02913, -11.3240,1.10000,0.90000,1.10000,0.90000
   129,'B129        ', 138.0000,1,   2,   2,   1,1.02883, -11.3099,1.10000,0.90000,1.10000,0.90000
   130,'B130        ', 500.0000,1,   2,   2,   1,0.99747,  -8.2826,1.10000,0.90000,1.10000,0.90000
   131,'C131        ', 345.0000,1,   3,   3,   1,0.98958,  -9.5217,1.10000,0.90000,1.10000,0.90000
   132,'C132        ', 345.0000,2,   3,   3,   1,0.98948,  -9.5218,1.10000,0.90000,1.10000,0.90000
   133,'C133        ', 500.0000,2,   3,   3,   1,0.95472,  -7.5076,1.10000,0.90000,1.10000,0.90000
   134,'C134        ', 500.0000,1,   3,   3,   1,0.96689, -12.6834,1.10000,0.90000,1.10000,0.90000
   135,'C135        ', 500.0000,2,   3,   3,   1,0.97498, -10.4592,1.10000,0.90000,1.10000,0.90000
   136,'C136        ', 138.0000,1,   3,   3,   1,0.99714, -15.5959,1.10000,0.90000,1.10000,0.90000
   137,'C137        ', 138.0000,1,   3,   3,   1,1.00010, -15.0769,1.10000,0.90000,1.10000,0.90000
   138,'C138        ', 138.0000,2,   3,   3,   1,1.00013, -15.0687,1.10000,0.90000,1.10000,0.90000
   139,'C139        ', 138.0000,1,   3,   3,   1,0.99392, -15.8462,1.10000,0.90000,1.10000,0.90000
   140,'C140        ', 138.0000,1,   3,   3,   1,0.99713, -15.6527,1.10000,0.90000,1.10000,0.90000
   141,'C141        ', 138.0000,1,   3,   3,   1,1.02436, -12.6459,1.10000,0.90000,1.10000,0.90000
   142,'C142        ', 138.0000,2,   3,   3,   1,1.00537, -15.1617,1.10000,0.90000,1.10000,0.90000
   143,'C143        ', 138.0000,1,   3,   3,   1,1.02639, -12.2624,1.10000,0.90000,1.10000,0.90000
   144,'C144        ', 138.0000,2,   3,   3,   1,1.02828, -12.8110,1.10000,0.90000,1.10000,0.90000
   145,'C145        ', 138.0000,1,   3,   3,   1,1.02782, -12.8399,1.10000,0.90000,1.10000,0.90000
   146,'C146        ', 138.0000,1,   3,   3,   1,1.03386, -12.2276,1.10000,0.90000,1.10000,0.90000
   147,'C147        ', 138.0000,1,   3,   3,   1,1.03388, -12.2018,1.10000,0.90000,1.10000,0.90000
   148,'C148        ', 138.0000,1,   3,   3,   1,1.03385, -12.1942,1.10000,0.90000,1.10000,0.90000
   149,'C149        ',  16.0000,1,   3,   3,   1,0.98406, -12.6760,1.10000,0.90000,1.10000,0.90000
   150,'C150        ', 138.0000,1,   3,   3,   1,1.00285, -15.1585,1.10000,0.90000,1.10000,0.90000
   151,'C151        ', 138.0000,1,   3,   3,   1,1.00985, -14.3411,1.10000,0.90000,1.10000,0.90000
   152,'C152        ', 138.0000,2,   3,   3,   1,1.01364, -15.2948,1.10000,0.90000,1.10000,0.90000
   153,'C153        ', 138.0000,2,   3,   3,   1,1.00872, -16.0536,1.10000,0.90000,1.10000,0.90000
   154,'C154        ', 138.0000,1,   3,   3,   1,1.00851, -16.0566,1.10000,0.90000,1.10000,0.90000
   155,'C155        ', 138.0000,1,   3,   3,   1,1.00877, -16.0285,1.10000,0.90000,1.10000,0.90000
   156,'C156        ', 138.0000,1,   3,   3,   1,1.00775, -16.1101,1.10000,0.90000,1.10000,0.90000
   157,'C157        ', 138.0000,2,   3,   3,   1,1.02286, -13.2840,1.10000,0.90000,1.10000,0.90000
   158,'C158        ', 138.0000,1,   3,   3,   1,1.00259, -14.9985,1.10000,0.90000,1.10000,0.90000
   159,'C159        ', 138.0000,2,   3,   3,   1,1.00504, -17.0055,1.10000,0.90000,1.10000,0.90000
   160,'C160        ', 138.0000,2,   3,   3,   1,1.01199, -13.2714,1.10000,0.90000,1.10000,0.90000
   161,'C161        ', 138.0000,1,   3,   3,   1,1.02112, -12.6273,1.10000,0.90000,1.10000,0.90000
   162,'C162        ', 138.0000,1,   3,   3,   1,1.00850, -16.1186,1.10000,0.90000,1.10000,0.90000
   163,'C163        ', 138.0000,1,   3,   3,   1,1.00603, -16.1044,1.10000,0.90000,1.10000,0.90000
   164,'C164        ', 138.0000,1,   3,   3,   1,1.02846, -12.7489,1.10000,0.90000,1.10000,0.90000
   165,'C165        ', 138.0000,1,   3,   3,   1,1.00794, -10.3752,1.10000,0.90000,1.10000,0.90000
   166,'C166        ', 138.0000,1,   3,   3,   1,0.99313, -15.7160,1.10000,0.90000,1.10000,0.90000
   167,'C167        ', 138.0000,2,   3,   3,   1,1.03351, -10.7328,1.10000,0.90000,1.10000,0.90000
   168,'C168        ', 138.0000,2,   3,   3,   1,1.00293, -13.0685,1.10000,0.90000,1.10000,0.90000
   169,'C169        ', 138.0000,1,   3,   3,   1,1.01354, -13.4679,1.10000,0.90000,1.10000,0.90000
   170,'C170        ', 138.0000,1,   3,   3,   1,1.00754, -14.7120,1.10000,0.90000,1.10000,0.90000
   171,'C171        ', 138.0000,1,   3,   3,   1,0.99709, -16.7041,1.10000,0.90000,1.10000,0.90000
   172,'C172        ', 138.0000,2,   3,   3,   1,1.00818, -16.0609,1.10000,0.90000,1.10000,0.90000
   173,'C173        ', 138.0000,1,   3,   3,   1,0.99283, -16.5671,1.10000,0.90000,1.10000,0.90000
   174,'C174        ', 138.0000,1,   3,   3,   1,1.03063, -12.5694,1.10000,0.90000,1.10000,0.90000
   175,'C175        ', 138.0000,1,   3,   3,   1,1.02762, -12.8480,1.10000,0.90000,1.10000,0.90000
   176,'C176        ', 138.0000,1,   3,   3,   1,1.00857, -15.5240,1.10000,0.90000,1.10000,0.90000
   177,'C177        ', 138.0000,1,   3,   3,   1,1.03028, -12.5638,1.10000,0.90000,1.10000,0.90000
   178,'C178        ', 138.0000,2,   3,   3,   1,1.01091, -16.0654,1.10000,0.90000,1.10000,0.90000
   179,'C179        ', 138.0000,1,   3,   3,   1,1.02027, -14.1489,1.10000,0.90000,1.10000,0.90000
   180,'C180        ', 138.0000,2,   3,   3,   1,1.00969, -13.9607,1.10000,0.90000,1.10000,0.90000
   181,'D181        ', 345.0000,1,   4,   4,   1,0.99292, -12.1228,1.10000,0.90000,1.10000,0.90000
   182,'D182        ', 345.0000,1,   4,   4,   1,0.99292, -12.1228,1.10000,0.90000,1.10000,0.90000
   183,'D183        ', 345.0000,2,   4,   4,   1,1.02455, -10.1891,1.10000,0.90000,1.10000,0.90000
   184,'D184        ', 345.0000,2,   4,   4,   1,1.02456, -10.1816,1.10000,0.90000,1.10000,0.90000
   185,'D185        ', 500.0000,2,   4,   4,   1,1.00798,  -4.7855,1.10000,0.90000,1.10000,0.90000
   186,'D186        ', 500.0000,2,   4,   4,   1,1.00804,  -4.7818,1.10000,0.90000,1.10000,0.90000
   187,'D187        ', 500.0000,2,   4,   4,   1,0.99028,  -0.3536,1.10000,0.90000,1.10000,0.90000
   188,'D188        ', 500.0000,1,   4,   4,   1,0.97069,  -6.1492,1.10000,0.90000,1.10000,0.90000
   189,'D189        ', 345.0000,1,   4,   4,   1,0.99095, -12.2520,1.10000,0.90000,1.10000,0.90000
   190,'D190        ', 345.0000,1,   4,   4,   1,1.00450,  -9.1686,1.10000,0.90000,1.10000,0.90000
   191,'D191        ', 345.0000,1,   4,   4,   1,1.00478,  -9.1786,1.10000,0.90000,1.10000,0.90000
   192,'D192        ', 500.0000,1,   4,   4,   1,0.97342,  -6.3006,1.10000,0.90000,1.10000,0.90000
   193,'D193        ', 345.0000,1,   4,   4,   1,0.98886,  -9.3551,1.10000,0.90000,1.10000,0.90000
   194,'D194        ', 345.0000,1,   4,   4,   1,1.04342,  -6.2128,1.10000,0.90000,1.10000,0.90000
   195,'D195        ', 500.0000,1,   4,   4,   1,0.99387,  -4.9051,1.10000,0.90000,1.10000,0.90000
   196,'D196        ', 500.0000,1,   4,   4,   1,0.99390,  -4.9097,1.10000,0.90000,1.10000,0.90000
   197,'D197        ', 500.0000,1,   4,   4,   1,0.99838,  -3.1009,1.10000,0.90000,1.10000,0.90000
...
0 / END OF BUS DATA, BEGIN LOAD DATA
     1,'99',1,   4,   4,    89.792,    28.552,     0.000,     0.000,     0.000,     0.000,   1,1,0
     5,'99',1,   4,   4,    32.467,    85.895,     0.000,     0.000,     0.000,     0.000,   1,1,0
    11,'99',0,   4,   4,   113.087,    29.608,     0.000,     0.000,     0.000,     0.000,   1,1,0
    12,'99',0,   4,   4,    60.126,    81.669,     0.000,     0.000,     0.000,     0.000,   1,1,0
    15,'1 ',1,   4,   4,    11.000,    40.000,     0.000,     0.000,     0.000,     0.000,   1,1,0
    16,'1 ',1,   4,   4,     5.000,    10.000,     0.000,     0.000,     0.000,     0.000,   1,1,0
    17,'99',1,   4,   4,    52.713,    60.232,     0.000,     0.000,     0.000,     0.000,   1,1,0
    18,'1 ',1,   4,   4,     6.930,     3.110,     0.000,     0.000,     0.000,     0.000,   1,1,0
    19,'1 ',1,   4,   4,    14.650,     1.000,     0.000,     0.000,     0.000,     0.000,   1,1,0
    20,'1 ',1,   4,   4,     8.140,     1.320,     0.000,     0.000,     0.000,     0.000,   1,1,0
    21,'1 ',1,   4,   4,    14.170,     4.220,     0.000,     0.000,     0.000,     0.000,   1,1,0
    22,'1 ',1,   4,   4,     4.220,     1.000,     0.000,     0.000,     0.000,     0.000,   1,1,0
    23,'99',0,   4,   4,    61.490,    28.471,     0.000,     0.000,     0.000,     0.000,   1,1,0
    26,'99',1,   4,   4,    31.972,    20.826,     0.000,     0.000,     0.000,     0.000,   1,1,0
    27,'1 ',1,   4,   4,     5.220,     2.110,     0.000,     0.000,     0.000,     0.000,   1,1,0
    28,'1 ',1,   4,   4,     2.610,     1.000,     0.000,     0.000,     0.000,     0.000,   1,1,0
    29,'1 ',1,   4,   4,     0.010,     0.010,     0.000,     0.000,     0.000,     0.000,   1,1,0
    30,'1 ',1,   4,   4,     0.010,     0.010,     0.000,     0.000,     0.000,     0.000,   1,1,0
    31,'1 ',1,   4,   4,    15.670,     5.220,     0.000,     0.000,     0.000,     0.000,   1,1,0
    32,'1 ',1,   4,   4,    16.780,     4.720,     0.000,     0.000,     0.000,     0.000,   1,1,0
    34,'1 ',1,   4,   4,     4.220,     0.500,     0.000,     0.000,     0.000,     0.000,   1,1,0
    35,'1 ',1,   4,   4,     9.950,     2.110,     0.000,     0.000,     0.000,     0.000,   1,1,0
    36,'1 ',1,   4,   4,    10.850,     1.000,     0.000,     0.000,     0.000,     0.000,   1,1,0
    37,'1 ',1,   4,   4,    14.670,     3.110,     0.000,     0.000,     0.000,     0.000,   1,1,0
    38,'1 ',1,   4,   4,     7.540,     1.000,     0.000,     0.000,     0.000,     0.000,   1,1,0
    39,'1 ',1,   4,   4,     2.110,     0.500,     0.000,     0.000,     0.000,     0.000,   1,1,0
    40,'1 ',1,   4,   4,     2.110,     0.500,     0.000,     0.000,     0.000,     0.000,   1,1,0
    41,'1 ',1,   4,   4,     8.740,     3.110,     0.000,     0.000,     0.000,     0.000,   1,1,0
    42,'1 ',1,   4,   4,     5.730,     1.000,     0.000,     0.000,     0.000,     0.000,   1,1,0
    43,'1 ',1,   4,   4,    17.780,     3.710,     0.000,     0.000,     0.000,     0.000,   1,1,0
    43,'99',1,   4,   4,    25.595,     2.539,     0.000,     0.000,     0.000,     0.000,   1,1,0
    44,'1 ',1,   4,   4,     9.450,     2.610,     0.000,     0.000,     0.000,     0.000,   1,1,0
    45,'1 ',1,   4,   4,    24.110,     8.440,     0.000,     0.000,     0.000,     0.000,   1,1,0
    45,'99',1,   4,   4,    17.917,     4.322,     0.000,     0.000,     0.000,     0.000,   1,1,0
    46,'1 ',1,   4,   4,    15.670,     2.610,     0.000,     0.000,     0.000,     0.000,   1,1,0
    47,'1 ',1,   4,   4,    19.890,     6.830,     0.000,     0.000,     0.000,     0.000,   1,1,0
    48,'1 ',1,   4,   4,     8.340,     2.710,     0.000,     0.000,     0.000,     0.000,   1,1,0
    49,'1 ',1,   4,   4,    16.780,     6.330,     0.000,     0.000,     0.000,     0.000,   1,1,0
    50,'1 ',1,   4,   4,     7.330,     2.110,     0.000,     0.000,     0.000,     0.000,   1,1,0
    50,'99',1,   4,   4,     5.813,    -0.845,     0.000,     0.000,     0.000,     0.000,   1,1,0
    51,'1 ',1,   4,   4,     5.220,     0.500,     0.000,     0.000,     0.000,     0.000,   1,1,0
    53,'99',1,   4,   4,    68.659,     4.968,     0.000,     0.000,     0.000,     0.000,   1,1,0
    54,'1 ',1,   4,   4,     9.450,     1.000,     0.000,     0.000,     0.000,     0.000,   1,1,0
    55,'1 ',1,   4,   4,     8.340,     3.110,     0.000,     0.000,     0.000,     0.000,   1,1,0
    57,'1 ',1,   4,   4,    14.670,     3.110,     0.000,     0.000,     0.000,     0.000,   1,1,0
    57,'99',1,   4,   4,     4.491,    -1.099,     0.000,     0.000,     0.000,     0.000,   1,1,0
    58,'1 ',1,   4,   4,    30.440,     4.220,     0.000,     0.000,     0.000,     0.000,   1,1,0
    59,'1 ',1,   4,   4,    18.890,     4.720,     0.000,     0.000,     0.000,     0.000,   1,1,0
    60,'1 ',1,   4,   4,    11.550,     1.000,     0.000,     0.000,     0.000,     0.000,   1,1,0
    61,'1 ',1,   4,   4,    17.780,     4.220,     0.000,     0.000,     0.000,     0.000,   1,1,0
    66,'99',0,   5,   5,    89.792,    28.552,     0.000,     0.000,     0.000,     0.000,   1,1,0
    70,'99',1,   5,   5,    32.467,    85.895,     0.000,     0.000,     0.000,     0.000,   1,1,0
    76,'99',1,   5,   5,    42.839,    29.608,     0.000,     0.000,     0.000,     0.000,   1,1,0
    77,'99',0,   5,   5,    60.126,    81.669,     0.000,     0.000,     0.000,     0.000,   1,1,0
    80,'1 ',1,   5,   5,    11.000,    40.000,     0.000,     0.000,     0.000,     0.000,   1,1,0
    81,'1 ',1,   5,   5,     5.000,    10.000,     0.000,     0.000,     0.000,     0.000,   1,1,0
    82,'99',1,   5,   5,    52.713,    60.232,     0.000,     0.000,     0.000,     0.000,   1,1,0
    83,'1 ',1,   5,   5,     6.930,     3.110,     0.000,     0.000,     0.000,     0.000,   1,1,0
    84,'1 ',1,   5,   5,    14.650,     1.000,     0.000,     0.000,     0.000,     0.000,   1,1,0
    85,'1 ',1,   5,   5,     8.140,     1.320,     0.000,     0.000,     0.000,     0.000,   1,1,0
    86,'1 ',1,   5,   5,    14.170,     4.220,     0.000,     0.000,     0.000,     0.000,   1,1,0
    87,'1 ',1,   5,   5,     4.220,     1.000,     0.000,     0.000,     0.000,     0.000,   1,1,0
    88,'99',1,   5,   5,    61.490,    28.471,     0.000,     0.000,     0.000,     0.000,   1,1,0
    91,'99',1,   5,   5,     3.946,    20.826,     0.000,     0.000,     0.000,     0.000,   1,1,0
    92,'1 ',1,   5,   5,     5.220,     2.110,     0.000,     0.000,     0.000,     0.000,   1,1,0
    93,'1 ',1,   5,   5,     2.610,     1.000,     0.000,     0.000,     0.000,     0.000,   1,1,0
    94,'1 ',1,   5,   5,     0.010,     0.010,     0.000,     0.000,     0.000,     0.000,   1,1,0
    95,'1 ',1,   5,   5,     0.010,     0.010,     0.000,     0.000,     0.000,     0.000,   1,1,0
    96,'1 ',1,   5,   5,    15.670,     5.220,     0.000,     0.000,     0.000,     0.000,   1,1,0
    97,'1 ',1,   5,   5,    16.780,     4.720,     0.000,     0.000,     0.000,     0.000,   1,1,0
    99,'1 ',1,   5,   5,     4.220,     0.500,     0.000,     0.000,     0.000,     0.000,   1,1,0
   100,'1 ',1,   5,   5,     9.950,     2.110,     0.000,     0.000,     0.000,     0.000,   1,1,0
   101,'1 ',1,   5,   5,    10.850,     1.000,     0.000,     0.000,     0.000,     0.000,   1,1,0
   102,'1 ',1,   5,   5,    14.670,     3.110,     0.000,     0.000,     0.000,     0.000,   1,1,0
   103,'1 ',1,   5,   5,     7.540,     1.000,     0.000,     0.000,     0.000,     0.000,   1,1,0
   104,'1 ',1,   5,   5,     2.110,     0.500,     0.000,     0.000,     0.000,     0.000,   1,1,0
   105,'1 ',1,   5,   5,     2.110,     0.500,     0.000,     0.000,     0.000,     0.000,   1,1,0
   106,'1 ',1,   5,   5,     8.740,     3.110,     0.000,     0.000,     0.000,     0.000,   1,1,0
   107,'1 ',1,   5,   5,     5.730,     1.000,     0.000,     0.000,     0.000,     0.000,   1,1,0
   108,'1 ',1,   5,   5,    17.780,     3.710,     0.000,     0.000,     0.000,     0.000,   1,1,0
   108,'99',1,   5,   5,    25.328,     2.539,     0.000,     0.000,     0.000,     0.000,   1,1,0
   109,'1 ',1,   5,   5,     9.450,     2.610,     0.000,     0.000,     0.000,     0.000,   1,1,0
   110,'1 ',1,   5,   5,    24.110,     8.440,     0.000,     0.000,     0.000,     0.000,   1,1,0
   110,'99',1,   5,   5,    17.917,     4.322,     0.000,     0.000,     0.000,     0.000,   1,1,0
   111,'1 ',1,   5,   5,    15.670,     2.610,     0.000,     0.000,     0.000,     0.000,   1,1,0
   112,'1 ',1,   5,   5,    19.890,     6.830,     0.000,     0.000,     0.000,     0.000,   1,1,0
   113,'1 ',1,   5,   5,     8.340,     2.710,     0.000,     0.000,     0.000,     0.000,   1,1,0
   114,'1 ',1,   5,   5,    16.780,     6.330,     0.000,     0.000,     0.000,     0.000,   1,1,0
   115,'1 ',1,   5,   5,     7.330,     2.110,     0.000,     0.000,     0.000,     0.000,   1,1,0
   115,'99',1,   5,   5,     5.813,    -0.845,     0.000,     0.000,     0.000,     0.000,   1,1,0
   116,'1 ',1,   5,   5,     5.220,     0.500,     0.000,     0.000,     0.000,     0.000,   1,1,0
   118,'99',1,   5,   5,    68.659,     4.968,     0.000,     0.000,     0.000,     0.000,   1,1,0
   119,'1 ',1,   5,   5,     9.450,     1.000,     0.000,     0.000,     0.000,     0.000,   1,1,0
   120,'1 ',1,   5,   5,     8.340,     3.110,     0.000,     0.000,     0.000,     0.000,   1,1,0
   122,'1 ',1,   5,   5,    14.670,     3.110,     0.000,     0.000,     0.000,     0.000,   1,1,0
   122,'99',1,   5,   5,     4.491,    -1.099,     0.000,     0.000,     0.000,     0.000,   1,1,0
   123,'1 ',1,   5,   5,    30.440,     4.220,     0.000,     0.000,     0.000,     0.000,   1,1,0
   124,'1 ',1,   5,   5,    18.890,     4.720,     0.000,     0.000,     0.000,     0.000,   1,1,0
   125,'1 ',1,   5,   5,    11.550,     1.000,     0.000,     0.000,     0.000,     0.000,   1,1,0
   126,'1 ',1,   5,   5,    17.780,     4.220,     0.000,     0.000,     0.000,     0.000,   1,1,0
   131,'99',1,   1,   1,    40.590,    70.733,     0.000,     0.000,     0.000,     0.000,   1,1,0
   136,'1 ',1,   1,   1,     8.380,     1.200,     0.000,     0.000,     0.000,     0.000,   1,1,0
   137,'1 ',1,   1,   1,     4.830,     1.100,     0.000,     0.000,     0.000,     0.000,   1,1,0
   139,'1 ',1,   1,   1,    11.550,     5.820,     0.000,     0.000,     0.000,     0.000,   1,1,0
   140,'1 ',1,   1,   1,    13.160,     4.920,     0.000,     0.000,     0.000,     0.000,   1,1,0
   141,'1 ',1,   1,   1,     9.750,     5.120,     0.000,     0.000,     0.000,     0.000,   1,1,0
   141,'99',1,   1,   1,    16.288,    -1.765,     0.000,     0.000,     0.000,     0.000,   1,1,0
   142,'1 ',1,   1,   1,    12.560,     2.110,     0.000,     0.000,     0.000,     0.000,   1,1,0
   143,'1 ',1,   1,   1,     4.720,     0.700,     0.000,     0.000,     0.000,     0.000,   1,1,0
   144,'1 ',1,   1,   1,     9.450,    -3.270,     0.000,     0.000,     0.000,     0.000,   1,1,0
   145,'1 ',1,   1,   1,    10.150,     4.220,     0.000,     0.000,     0.000,     0.000,   1,1,0
   150,'1 ',1,   1,   1,    17.780,     4.220,     0.000,     0.000,     0.000,     0.000,   1,1,0
   151,'1 ',1,   1,   1,     8.040,     4.120,     0.000,     0.000,     0.000,     0.000,   1,1,0
   152,'1 ',1,   1,   1,     0.010,     0.010,     0.000,     0.000,     0.000,     0.000,   1,1,0
   153,'1 ',1,   1,   1,    73.330,    31.390,     0.000,     0.000,     0.000,     0.000,   1,1,0
   154,'1 ',1,   1,   1,    62.900,    26.210,     0.000,     0.000,     0.000,     0.000,   1,1,0
   156,'1 ',1,   1,   1,     8.340,     2.610,     0.000,     0.000,     0.000,     0.000,   1,1,0
   157,'1 ',1,   1,   1,     5.120,     0.680,     0.000,     0.000,     0.000,     0.000,   1,1,0
   158,'1 ',1,   1,   1,    15.170,     4.720,     0.000,     0.000,     0.000,     0.000,   1,1,0
   159,'1 ',1,   1,   1,    13.660,     6.330,     0.000,     0.000,     0.000,     0.000,   1,1,0
   160,'1 ',1,   1,   1,     8.940,     2.320,     0.000,     0.000,     0.000,     0.000,   1,1,0
   160,'99',0,   1,   1,    15.539,     4.034,     0.000,     0.000,     0.000,     0.000,   1,1,0
   161,'1 ',1,   1,   1,     0.900,     0.500,     0.000,     0.000,     0.000,     0.000,   1,1,0
   161,'99',1,   1,   1,    13.089,    11.304,     0.000,     0.000,     0.000,     0.000,   1,1,0
   162,'1 ',1,   1,   1,     9.450,     2.210,     0.000,     0.000,     0.000,     0.000,   1,1,0
   163,'1 ',1,   1,   1,    11.550,     2.610,     0.000,     0.000,     0.000,     0.000,   1,1,0
   164,'1 ',1,   1,   1,     3.920,     1.610,     0.000,     0.000,     0.000,     0.000,   1,1,0
   165,'1 ',1,   1,   1,    16.280,     5.220,     0.000,     0.000,     0.000,     0.000,   1,1,0
   165,'99',0,   1,   1,    23.474,     3.366,     0.000,     0.000,     0.000,     0.000,   1,1,0
   166,'1 ',1,   1,   1,    12.460,     5.820,     0.000,     0.000,     0.000,     0.000,   1,1,0
   168,'1 ',1,   1,   1,    12.560,     4.220,     0.000,     0.000,     0.000,     0.000,   1,1,0
   169,'1 ',1,   1,   1,    23.610,     4.720,     0.000,     0.000,     0.000,     0.000,   1,1,0
   170,'1 ',1,   1,   1,     0.100,     0.100,     0.000,     0.000,     0.000,     0.000,   1,1,0
   171,'1 ',1,   1,   1,     0.100,     0.100,     0.000,     0.000,     0.000,     0.000,   1,1,0
   172,'1 ',1,   1,   1,     9.450,     2.310,     0.000,     0.000,     0.000,     0.000,   1,1,0
   173,'1 ',1,   1,   1,    13.560,     6.230,     0.000,     0.000,     0.000,     0.000,   1,1,0
   174,'1 ',1,   1,   1,     6.830,     2.610,     0.000,     0.000,     0.000,     0.000,   1,1,0
   175,'1 ',1,   1,   1,     4.720,     2.610,     0.000,     0.000,     0.000,     0.000,   1,1,0
   176,'1 ',1,   1,   1,     6.330,     0.900,     0.000,     0.000,     0.000,     0.000,   1,1,0
   177,'1 ',1,   1,   1,     4.120,     2.510,     0.000,     0.000,     0.000,     0.000,   1,1,0
   178,'1 ',1,   1,   1,     0.010,     0.010,     0.000,     0.000,     0.000,     0.000,   1,1,0
   179,'1 ',1,   1,   1,     9.040,     3.710,     0.000,     0.000,     0.000,     0.000,   1,1,0
   179,'99',1,   1,   1,    35.266,    -6.714,     0.000,     0.000,     0.000,     0.000,   1,1,0
   180,'1 ',1,   1,   1,     6.330,     1.570,     0.000,     0.000,     0.000,     0.000,   1,1,0
   180,'99',0,   1,   1,    26.032,     1.769,     0.000,     0.000,     0.000,     0.000,   1,1,0
   181,'99',1,   7,   7,    61.442,    45.533,     0.000,     0.000,     0.000,     0.000,   1,1,0
   183,'1 ',1,   7,   7,    12.000,    30.000,     0.000,     0.000,     0.000,     0.000,   1,1,0
   183,'99',1,   7,   7,    21.511,   129.396,     0.000,     0.000,     0.000,     0.000,   1,1,0
   184,'1 ',1,   7,   7,    19.910,    36.570,     0.000,     0.000,     0.000,     0.000,   1,1,0
   185,'1 ',1,   7,   7,    12.000,    30.000,     0.000,     0.000,     0.000,     0.000,   1,1,0
   186,'1 ',1,   7,   7,    12.000,    30.000,     0.000,     0.000,     0.000,     0.000,   1,1,0
   188,'99',0,   7,   7,   305.693,    82.387,     0.000,     0.000,     0.000,     0.000,   1,1,0
   189,'99',1,   7,   7,    33.410,    22.473,     0.000,     0.000,     0.000,     0.000,   1,1,0
   190,'99',1,   7,   7,    18.514,    68.881,     0.000,     0.000,     0.000,     0.000,   1,1,0
   191,'99',1,   7,   7,    14.738,     4.031,     0.000,     0.000,     0.000,     0.000,   1,1,0
   193,'99',1,   7,   7,    32.230,    53.022,     0.000,     0.000,     0.000,     0.000,   1,1,0
   194,'99',1,   7,   7,    81.500,    85.896,     0.000,     0.000,     0.000,     0.000,   1,1,0
   197,'99',0,   7,   7,    41.274,   -59.955,     0.000,     0.000,     0.000,     0.000,   1,1,0
   198,'1 ',1,   7,   7,    10.840,     2.510,     0.000,     0.000,     0.000,     0.000,   1,1,0
   199,'1 ',1,   7,   7,    19.220,    32.900,     0.000,     0.000,     0.000,     0.000,   1,1,0
   199,'99',1,   7,   7,   110.258,     4.043,     0.000,     0.000,     0.000,     0.000,   1,1,0
   201,'1 ',1,   7,   7,     6.560,     2.090,     0.000,     0.000,     0.000,     0.000,   1,1,0
   202,'1 ',1,   7,   7,     9.380,     2.090,     0.000,     0.000,     0.000,     0.000,   1,1,0
   203,'1 ',1,   7,   7,    12.500,     2.200,     0.000,     0.000,     0.000,     0.000,   1,1,0
   204,'1 ',1,   7,   7,    15.730,     5.750,     0.000,     0.000,     0.000,     0.000,   1,1,0
   205,'1 ',1,   7,   7,    18.770,     6.810,     0.000,     0.000,     0.000,     0.000,   1,1,0
   206,'1 ',1,   7,   7,    17.190,     7.740,     0.000,     0.000,     0.000,     0.000,   1,1,0
   208,'1 ',1,   7,   7,    11.980,     4.390,     0.000,     0.000,     0.000,     0.000,   1,1,0
   208,'99',1,   7,   7,    71.060,     4.954,     0.000,     0.000,     0.000,     0.000,   1,1,0
   209,'1 ',1,   7,   7,    14.590,     5.340,     0.000,     0.000,     0.000,     0.000,   1,1,0
   210,'1 ',1,   7,   7,    10.640,     1.370,     0.000,     0.000,     0.000,     0.000,   1,1,0
   210,'99',1,   7,   7,    39.598,    10.896,     0.000,     0.000,     0.000,     0.000,   1,1,0
   214,'1 ',1,   7,   7,    14.590,     7.320,     0.000,     0.000,     0.000,     0.000,   1,1,0
   214,'99',1,   7,   7,    40.395,   -17.373,     0.000,     0.000,     0.000,     0.000,   1,1,0
   216,'1 ',1,   7,   7,     6.880,    -0.700,     0.000,     0.000,     0.000,     0.000,   1,1,0
   216,'99',1,   7,   7,     4.177,    -9.584,     0.000,     0.000,     0.000,     0.000,   1,1,0
   217,'1 ',1,   7,   7,    11.460,     3.770,     0.000,     0.000,     0.000,     0.000,   1,1,0
   218,'1 ',1,   7,   7,    11.460,     4.080,     0.000,     0.000,     0.000,     0.000,   1,1,0
   219,'1 ',1,   7,   7,    16.780,    -0.570,     0.000,     0.000,     0.000,     0.000,   1,1,0
   219,'99',1,   7,   7,    63.845,    -2.487,     0.000,     0.000,     0.000,     0.000,   1,1,0
   220,'1 ',1,   7,   7,     8.130,     4.500,     0.000,     0.000,     0.000,     0.000,   1,1,0
   221,'1 ',1,   7,   7,    20.320,     5.440,     0.000,     0.000,     0.000,     0.000,   1,1,0
   221,'99',1,   7,   7,    40.951,     4.723,     0.000,     0.000,     0.000,     0.000,   1,1,0
   222,'1 ',1,   7,   7,    11.560,     0.010,     0.000,     0.000,     0.000,     0.000,   1,1,0
   224,'99',1,   7,   7,    48.788,     0.501,     0.000,     0.000,     0.000,     0.000,   1,1,0
   225,'1 ',1,   7,   7,    12.060,     2.610,     0.000,     0.000,     0.000,     0.000,   1,1,0
   225,'99',1,   7,   7,     4.841,    -0.515,     0.000,     0.000,     0.000,     0.000,   1,1,0
   226,'1 ',1,   7,   7,    13.060,     3.110,     0.000,     0.000,     0.000,     0.000,   1,1,0
   227,'1 ',1,   7,   7,     0.010,     0.000,     0.000,     0.000,     0.000,     0.000,   1,1,0
   228,'1 ',1,   7,   7,     7.330,     0.000,     0.000,     0.000,     0.000,     0.000,   1,1,0
   228,'99',1,   7,   7,    20.384,     2.122,     0.000,     0.000,     0.000,     0.000,   1,1,0
   230,'1 ',1,   7,   7,   634.000,     0.000,     0.000,     0.000,     0.000,     0.000,   1,1,0
   234,'99',1,   3,   3,    21.694,    -1.142,     0.000,     0.000,     0.000,     0.000,   1,1,0
   235,'1 ',1,   3,   3,     5.250,    -2.870,     0.000,     0.000,     0.000,     0.000,   1,1,0
   236,'1 ',1,   3,   3,     1.580,     0.050,     0.000,     0.000,     0.000,     0.000,   1,1,0
   239,'1 ',1,   3,   3,     1.220,    -1.860,     0.000,     0.000,     0.000,     0.000,   1,1,0
   240,'1 ',1,   3,   3,    -0.010,     0.480,     0.000,     0.000,     0.000,     0.000,   1,1,0
   241,'1 ',1,   3,   3,     4.710,    -2.690,     0.000,     0.000,     0.000,     0.000,   1,1,0
   242,'1 ',1,   3,   3,     1.640,     0.070,     0.000,     0.000,     0.000,     0.000,   1,1,0
   243,'1 ',1,   3,   3,     2.410,     0.990,     0.000,     0.000,     0.000,     0.000,   1,1,0
...
0 / END OF LOAD DATA, BEGIN FIXED SHUNT DATA
     3,'99',1,     0.000,    62.345
     9,'99',1,     0.000,     8.243
    11,'99',1,     0.000,    31.405
    12,'99',1,     0.000,    83.613
    23,'99',1,     0.000,    26.665
    54,'99',1,     0.000,    -0.932
    66,'99',1,     0.000,    30.473
    68,'99',1,     0.000,    62.477
    74,'99',1,     0.000,   -84.685
    77,'99',1,     0.000,    83.617
   119,'99',1,     0.000,     1.915
   132,'99',1,     0.000,  -176.979
   135,'99',1,     0.000,    17.278
   142,'99',1,     0.000,    13.513
   159,'99',1,     0.000,     2.713
   160,'99',1,     0.000,     3.947
   165,'99',1,     0.000,     3.327
   167,'99',1,     0.000,    15.409
   168,'99',1,     0.000,   -33.872
   180,'99',1,     0.000,     1.750
   188,'99',1,     0.000,    90.413
   197,'99',1,     0.000,   -58.999
   205,'99',1,     0.000,   -25.031
   206,'99',1,     0.000,    -0.130
   222,'99',1,     0.000,    -8.532
   248,'99',1,     0.000,    11.262
   353,'99',1,     0.000,   233.559
   375,'99',1,     0.000,     7.418
   424,'99',1,     0.000,     5.929
   457,'99',1,     0.000,     2.746
   480,'99',1,     0.000,    37.873
   483,'99',1,     0.000,    -5.221
   549,'99',1,     0.000,    85.138
   558,'99',1,     0.000,    37.083
   565,'99',1,     0.000,    -0.283
0 / END OF FIXED SHUNT DATA, BEGIN GENERATOR DATA
     3,'99',   122.955,    62.243,    33.333,   -33.333,0.99917,     0,   100.000, 0.00000E+0, 1.00000E+0, 0.00000E+0, 0.00000E+0,1.00000,0,  100.0,   137.955,   122.955,   1,1.0000
     4,'99',   206.613,  -349.336,   279.469,  -349.336,0.99176,     0,   100.000, 0.00000E+0, 1.00000E+0, 0.00000E+0, 0.00000E+0,1.00000,1,  100.0,   281.739,   172.178,   1,1.0000
     9,'99',    70.248,     7.759,    33.333,   -33.333,0.97019,     0,   100.000, 0.00000E+0, 1.00000E+0, 0.00000E+0, 0.00000E+0,1.00000,0,  100.0,    85.248,    70.248,   1,1.0000
    10,'99',   116.996,   -25.642,    20.514,   -25.642,0.97016,     0,   100.000, 0.00000E+0, 1.00000E+0, 0.00000E+0, 0.00000E+0,1.00000,1,  100.0,   221.788,    97.497,   1,1.0000
    15,'1 ',   119.352,    75.608,   105.000,   -62.000,1.01125,     0,   216.550, 0.00000E+0, 1.80000E-1, 0.00000E+0, 0.00000E+0,1.00000,1,  100.0,   179.000,  -200.000,   1,1.0000
    15,'2 ',   119.352,    75.608,   105.000,   -62.000,1.01125,     0,   179.000, 0.00000E+0, 1.80000E-1, 0.00000E+0, 0.00000E+0,1.00000,1,  100.0,   179.000,  -200.000,   1,1.0000
    15,'3 ',   119.352,    75.608,   130.000,   -75.000,1.01125,     0,   179.000, 0.00000E+0, 1.80000E-1, 0.00000E+0, 0.00000E+0,1.00000,1,  100.0,   179.000,  -200.000,   1,1.0000
    16,'1 ',     0.000,   115.666,   160.000,  -100.000,1.01125,     0,   179.000, 0.00000E+0, 1.80000E-1, 0.00000E+0, 0.00000E+0,1.00000,1,  100.0,   179.000,  -200.000,   1,1.0000
    19,'1 ',    49.000,    23.842,    35.000,  -165.000,1.01909,     0,    58.990, 0.00000E+0, 2.00000E-1, 0.00000E+0, 0.00000E+0,1.00000,1,  100.0,    55.000,    26.000,   1,1.0000
    20,'1 ',     0.000,     0.000,    18.333,   -18.333,1.01909,     0,    55.000, 0.00000E+0, 2.00000E-1, 0.00000E+0, 0.00000E+0,1.00000,0,  100.0,    55.000,    26.000,   1,1.0000
    22,'1 ',     0.300,     0.617,   184.000,  -180.000,1.02182,     0,     0.360, 0.00000E+0, 2.00000E-1, 0.00000E+0, 0.00000E+0,1.00000,1,  100.0,   285.000,     0.000,   1,1.0000
    29,'1 ',     4.800,   -61.418,   178.000,  -177.000,1.02182,     0,    18.000, 0.00000E+0, 2.00000E-1, 0.00000E+0, 0.00000E+0,1.00000,1,  100.0,    18.000,     0.000,   1,1.0000
    30,'1 ',     4.800,    50.939,   179.000,  -180.000,1.02455,     0,    22.000, 0.00000E+0, 2.00000E-1, 0.00000E+0, 0.00000E+0,1.00000,1,  100.0,    22.000,     0.000,   1,1.0000
    37,'1 ',     0.200,     6.771,   186.000,  -168.000,1.02182,     0,     0.240, 0.00000E+0, 2.00000E-1, 0.00000E+0, 0.00000E+0,1.00000,1,  100.0,   296.000,     0.000,   1,1.0000
    44,'1 ',     1.100,   -80.243,   178.000,  -169.000,1.02455,     0,     2.000, 0.00000E+0, 2.00000E-1, 0.00000E+0, 0.00000E+0,1.00000,1,  100.0,   269.000,     1.000,   1,1.0000
    45,'1 ',    11.100,  -101.681,   188.000,  -166.000,1.02182,     0,    15.000, 0.00000E+0, 2.00000E-1, 0.00000E+0, 0.00000E+0,1.00000,1,  100.0,    15.000,     0.000,   1,1.0000
    49,'1 ',     0.300,     5.414,   191.000,  -180.000,1.02182,     0,     1.000, 0.00000E+0, 2.00000E-1, 0.00000E+0, 0.00000E+0,1.00000,1,  100.0,   285.000,     0.000,   1,1.0000
    54,'1 ',     0.100,     3.734,   189.000,  -169.000,1.02455,     0,     0.120, 0.00000E+0, 2.00000E-1, 0.00000E+0, 0.00000E+0,1.00000,1,  100.0,   258.000,     0.000,   1,1.0000
    54,'99',    19.440,    -0.979,    33.333,   -33.333,1.02455,     0,   100.000, 0.00000E+0, 1.00000E+0, 0.00000E+0, 0.00000E+0,1.00000,0,  100.0,    34.440,    19.440,   1,1.0000
    58,'1 ',     4.000,    14.134,   198.000,  -180.000,1.02182,     0,     9.000, 0.00000E+0, 2.00000E-1, 0.00000E+0, 0.00000E+0,1.00000,1,  100.0,   297.000,     0.000,   1,1.0000
    60,'1 ',     0.200,     0.569,   179.000,  -184.000,1.02182,     0,     0.240, 0.00000E+0, 2.00000E-1, 0.00000E+0, 0.00000E+0,1.00000,1,  100.0,   278.000,     0.000,   1,1.0000
    68,'99',   122.955,    62.369,    33.333,   -33.333,0.99917,     0,   100.000, 0.00000E+0, 1.00000E+0, 0.00000E+0, 0.00000E+0,1.00000,0,  100.0,   137.955,   122.955,   1,1.0000
    69,'99',   206.613,  -352.655,   282.124,  -352.655,0.99176,     0,   100.000, 0.00000E+0, 1.00000E+0, 0.00000E+0, 0.00000E+0,1.00000,1,  100.0,   281.739,   172.178,   1,1.0000
    74,'99',    70.248,   -79.710,    33.333,   -33.333,0.97019,     0,   100.000, 0.00000E+0, 1.00000E+0, 0.00000E+0, 0.00000E+0,1.00000,0,  100.0,    85.248,    70.248,   1,1.0000
    75,'99',    93.701,   -51.890,    41.512,   -51.890,0.97016,     0,   100.000, 0.00000E+0, 1.00000E+0, 0.00000E+0, 0.00000E+0,1.00000,1,  100.0,   221.788,    78.084,   1,1.0000
    80,'1 ',   119.352,    75.937,   105.000,   -62.000,1.01125,     0,   216.550, 0.00000E+0, 1.80000E-1, 0.00000E+0, 0.00000E+0,1.00000,1,  100.0,   179.000,  -200.000,   1,1.0000
    80,'2 ',   119.352,    75.937,   105.000,   -62.000,1.01125,     0,   179.000, 0.00000E+0, 1.80000E-1, 0.00000E+0, 0.00000E+0,1.00000,1,  100.0,   179.000,  -200.000,   1,1.0000
    80,'3 ',   119.352,    75.937,   130.000,   -75.000,1.01125,     0,   179.000, 0.00000E+0, 1.80000E-1, 0.00000E+0, 0.00000E+0,1.00000,1,  100.0,   179.000,  -200.000,   1,1.0000
    81,'1 ',     0.000,   116.325,   160.000,  -100.000,1.01125,     0,   179.000, 0.00000E+0, 1.80000E-1, 0.00000E+0, 0.00000E+0,1.00000,1,  100.0,   179.000,  -200.000,   1,1.0000
    84,'1 ',    49.000,    23.990,    35.000,  -175.000,1.01909,     0,    58.990, 0.00000E+0, 2.00000E-1, 0.00000E+0, 0.00000E+0,1.00000,1,  100.0,    55.000,    26.000,   1,1.0000
    85,'1 ',     0.000,     0.000,    18.333,   -18.333,1.01909,     0,    55.000, 0.00000E+0, 2.00000E-1, 0.00000E+0, 0.00000E+0,1.00000,0,  100.0,    55.000,    26.000,   1,1.0000
    87,'1 ',     0.300,     0.526,   197.000,  -178.000,1.02182,     0,     0.360, 0.00000E+0, 2.00000E-1, 0.00000E+0, 0.00000E+0,1.00000,1,  100.0,   256.000,     0.000,   1,1.0000
    94,'1 ',     4.800,   -61.431,   179.000,  -170.000,1.02182,     0,    18.000, 0.00000E+0, 2.00000E-1, 0.00000E+0, 0.00000E+0,1.00000,1,  100.0,    18.000,     0.000,   1,1.0000
    95,'1 ',     4.800,    50.835,   199.000,  -184.000,1.02455,     0,    22.000, 0.00000E+0, 2.00000E-1, 0.00000E+0, 0.00000E+0,1.00000,1,  100.0,    22.000,     0.000,   1,1.0000
   102,'1 ',     0.200,     5.081,   182.000,  -166.000,1.02182,     0,     0.240, 0.00000E+0, 2.00000E-1, 0.00000E+0, 0.00000E+0,1.00000,1,  100.0,   268.000,     0.000,   1,1.0000
   109,'1 ',     1.100,   -80.653,   191.000,  -184.000,1.02455,     0,     2.000, 0.00000E+0, 2.00000E-1, 0.00000E+0, 0.00000E+0,1.00000,1,  100.0,   268.000,     1.000,   1,1.0000
   110,'1 ',    11.100,   -52.016,   191.000,  -176.000,1.02182,     0,    15.000, 0.00000E+0, 2.00000E-1, 0.00000E+0, 0.00000E+0,1.00000,1,  100.0,    15.000,     0.000,   1,1.0000
   114,'1 ',     0.300,    12.645,   183.000,  -171.000,1.02182,     0,     1.000, 0.00000E+0, 2.00000E-1, 0.00000E+0, 0.00000E+0,1.00000,1,  100.0,   298.000,     0.000,   1,1.0000
   119,'1 ',     0.100,     4.738,   192.000,  -167.000,1.02455,     0,     0.120, 0.00000E+0, 2.00000E-1, 0.00000E+0, 0.00000E+0,1.00000,1,  100.0,   283.000,     0.000,   1,1.0000
   119,'99',    19.440,     2.016,    33.333,   -33.333,1.02455,     0,   100.000, 0.00000E+0, 1.00000E+0, 0.00000E+0, 0.00000E+0,1.00000,0,  100.0,    34.440,    19.440,   1,1.0000
   123,'1 ',     4.000,    14.415,   200.000,  -172.000,1.02182,     0,     9.000, 0.00000E+0, 2.00000E-1, 0.00000E+0, 0.00000E+0,1.00000,1,  100.0,   264.000,     0.000,   1,1.0000
   125,'1 ',     0.200,    -0.176,   196.000,  -167.000,1.02182,     0,     0.240, 0.00000E+0, 2.00000E-1, 0.00000E+0, 0.00000E+0,1.00000,1,  100.0,   253.000,     0.000,   1,1.0000
   132,'99',    20.288,  -172.327,    33.333,   -33.333,0.98698,     0,   100.000, 0.00000E+0, 1.00000E+0, 0.00000E+0, 0.00000E+0,1.00000,0,  100.0,    35.288,    20.288,   1,1.0000
   133,'99',    72.823,   -11.868,   202.927,  -202.927,0.95472,     0,   100.000, 0.00000E+0, 1.00000E+0, 0.00000E+0, 0.00000E+0,1.00000,1,  100.0,   393.516,    60.686,   1,1.0000
   135,'99',    86.886,    16.300,    33.333,   -33.333,0.97131,     0,   100.000, 0.00000E+0, 1.00000E+0, 0.00000E+0, 0.00000E+0,1.00000,0,  100.0,   101.886,    86.886,   1,1.0000
   138,'99',    12.563,   -12.479,    12.479,   -12.479,0.99008,     0,   100.000, 0.00000E+0, 1.00000E+0, 0.00000E+0, 0.00000E+0,1.00000,1,  100.0,    33.726,    10.469,   1,1.0000
   142,'99',    10.238,    13.347,    33.333,   -33.333,0.99370,     0,   100.000, 0.00000E+0, 1.00000E+0, 0.00000E+0, 0.00000E+0,1.00000,0,  100.0,    25.238,    10.238,   1,1.0000
   144,'1 ',     0.000,     0.000,     2.333,    -2.333,1.01909,     0,     7.000, 0.00000E+0, 2.00000E-1, 0.00000E+0, 0.00000E+0,1.00000,0,  100.0,   270.000,     5.000,   1,1.0000
   152,'1 ',    12.000,     7.981,   192.000,  -171.000,1.01364,     0,    41.000, 0.00000E+0, 2.00000E-1, 0.00000E+0, 0.00000E+0,1.00000,1,  100.0,    41.000,     0.000,   1,1.0000
   153,'1 ',    15.362,    23.475,    23.475,  -178.000,1.01091,     0,    37.520, 0.00000E+0, 2.00000E-1, 0.00000E+0, 0.00000E+0,1.00000,1,  100.0,    25.000,     0.000,   1,1.0000
   153,'2 ',    21.507,    32.438,    32.438,  -170.000,1.01091,     0,    35.000, 0.00000E+0, 2.00000E-1, 0.00000E+0, 0.00000E+0,1.00000,1,  100.0,    35.000,     0.000,   1,1.0000
   153,'3 ',     0.000,     0.000,     8.333,    -8.333,1.01091,     0,    25.000, 0.00000E+0, 2.00000E-1, 0.00000E+0, 0.00000E+0,1.00000,0,  100.0,    25.000,     0.000,   1,1.0000
   157,'1 ',     0.000,     0.000,     0.667,    -0.667,1.01637,     0,     2.000, 0.00000E+0, 2.00000E-1, 0.00000E+0, 0.00000E+0,1.00000,0,  100.0,   266.000,     0.000,   1,1.0000
   159,'99',    37.208,     2.743,    33.333,   -33.333,1.00283,     0,   100.000, 0.00000E+0, 1.00000E+0, 0.00000E+0, 0.00000E+0,1.00000,0,  100.0,    52.208,    37.208,   1,1.0000
   160,'1 ',     0.000,     0.000,    33.333,   -33.333,1.01909,     0,   100.000, 0.00000E+0, 2.00000E-1, 0.00000E+0, 0.00000E+0,1.00000,0,  100.0,   274.000,     0.000,   1,1.0000
   167,'99',    12.972,    16.356,    33.333,   -33.333,1.02983,     0,   100.000, 0.00000E+0, 1.00000E+0, 0.00000E+0, 0.00000E+0,1.00000,0,  100.0,    27.972,    12.972,   1,1.0000
   168,'99',    11.842,   -34.303,    33.333,   -33.333,1.00627,     0,   100.000, 0.00000E+0, 1.00000E+0, 0.00000E+0, 0.00000E+0,1.00000,0,  100.0,    26.842,    11.842,   1,1.0000
   172,'1 ',     0.300,     5.696,   181.000,  -184.000,1.00818,     0,     0.360, 0.00000E+0, 2.00000E-1, 0.00000E+0, 0.00000E+0,1.00000,1,  100.0,   276.000,     0.000,   1,1.0000
   178,'1 ',     4.800,     6.925,   185.000,  -183.000,1.01091,     0,    18.000, 0.00000E+0, 2.00000E-1, 0.00000E+0, 0.00000E+0,1.00000,1,  100.0,    18.000,     0.000,   1,1.0000
   180,'1 ',     0.000,     0.000,     1.333,    -1.333,1.01364,     0,     4.000, 0.00000E+0, 2.00000E-1, 0.00000E+0, 0.00000E+0,1.00000,0,  100.0,   277.000,     0.000,   1,1.0000
   183,'1 ',   180.000,   130.578,   138.750,   -21.000,1.02455,     0,   253.760, 0.00000E+0, 1.80000E-1, 0.00000E+0, 0.00000E+0,1.00000,1,  100.0,   205.000,   135.000,   1,1.0000
   184,'1 ',     0.000,     0.000,    74.000,   -74.000,1.02455,     0,   222.000, 0.00000E+0, 1.80000E-1, 0.00000E+0, 0.00000E+0,1.00000,0,  100.0,   222.000,    90.000,   1,1.0000
   184,'2 ',     0.000,     0.000,    68.333,   -68.333,1.02455,     0,   205.000, 0.00000E+0, 1.80000E-1, 0.00000E+0, 0.00000E+0,1.00000,0,  100.0,   205.000,   135.000,   1,1.0000
   184,'3 ',   180.000,   -31.000,   119.000,   -31.000,1.02455,     0,   232.000, 0.00000E+0, 1.80000E-1, 0.00000E+0, 0.00000E+0,1.00000,1,  100.0,   232.000,   100.000,   1,1.0000
   185,'1 ',   200.347,   127.500,   127.500,   -15.000,1.00975,     0,   268.920, 0.00000E+0, 1.80000E-1, 0.00000E+0, 0.00000E+0,1.00000,1,  100.0,   250.434,    90.000,   1,1.0000
   186,'1 ',     0.000,     0.000,    77.333,   -77.333,1.00975,     0,   232.000, 0.00000E+0, 1.80000E-1, 0.00000E+0, 0.00000E+0,1.00000,0,  100.0,   232.000,   100.000,   1,1.0000
   186,'2 ',   200.000,   127.500,   127.500,   -15.000,1.00975,     0,   268.920, 0.00000E+0, 1.80000E-1, 0.00000E+0, 0.00000E+0,1.00000,1,  100.0,   250.000,    90.000,   1,1.0000
   187,'99',   729.437,   -90.365,    72.292,   -90.365,0.98307,     0,   100.000, 0.00000E+0, 1.00000E+0, 0.00000E+0, 0.00000E+0,1.00000,1,  100.0,  1241.445,   607.864,   1,1.0000
   199,'1 ',   150.000,   -10.606,   117.000,   -19.000,1.01500,     0,   222.000, 0.00000E+0, 1.80000E-1, 0.00000E+0, 0.00000E+0,1.00000,1,  100.0,   222.000,    90.000,   1,1.0000
   205,'1 ',     2.500,    -3.920,   193.000,  -171.000,1.01091,     0,     4.000, 0.00000E+0, 2.00000E-1, 0.00000E+0, 0.00000E+0,1.00000,1,  100.0,   297.000,     2.083,   1,1.0000
   205,'99',    13.315,   -25.581,    33.333,   -33.333,1.01091,     0,   100.000, 0.00000E+0, 1.00000E+0, 0.00000E+0, 0.00000E+0,1.00000,0,  100.0,    28.315,    13.315,   1,1.0000
   206,'99',    19.719,    -0.135,    33.333,   -33.333,1.02073,     0,   100.000, 0.00000E+0, 1.00000E+0, 0.00000E+0, 0.00000E+0,1.00000,0,  100.0,    34.719,    19.719,   1,1.0000
   210,'1 ',     3.000,    -0.596,   194.000,  -168.000,1.00818,     0,     6.000, 0.00000E+0, 2.00000E-1, 0.00000E+0, 0.00000E+0,1.00000,1,  100.0,   258.000,     2.500,   1,1.0000
   222,'1 ',     8.000,    34.800,   192.000,  -177.000,1.02727,     0,    26.000, 0.00000E+0, 2.00000E-1, 0.00000E+0, 0.00000E+0,1.00000,1,  100.0,    26.000,     0.000,   1,1.0000
   222,'99',     0.267,    -8.975,    33.333,   -33.333,1.02727,     0,   100.000, 0.00000E+0, 1.00000E+0, 0.00000E+0, 0.00000E+0,1.00000,0,  100.0,   273.000,     0.267,   1,1.0000
   226,'1 ',     0.850,    -6.791,   198.000,  -171.000,1.02455,     0,     2.000, 0.00000E+0, 2.00000E-1, 0.00000E+0, 0.00000E+0,1.00000,1,  100.0,   261.000,     0.000,   1,1.0000
   227,'1 ',    17.600,   -10.955,   188.000,  -172.000,1.02727,     0,    50.000, 0.00000E+0, 2.00000E-1, 0.00000E+0, 0.00000E+0,1.00000,1,  100.0,    50.000,     0.000,   1,1.0000
   230,'1 ',     0.000,    84.353,   179.000,  -183.000,1.02478,     0,   108.130, 0.00000E+0, 1.80000E-1, 0.00000E+0, 0.00000E+0,1.00000,1,  100.0,   254.000,     0.000,   1,1.0000
   237,'1 ',     0.000,     0.000,    23.733,   -23.733,1.02040,     0,    71.200, 0.00000E+0, 1.89000E-1, 0.00000E+0, 0.00000E+0,1.00000,0,  100.0,    45.150,     0.000,   1,1.0000
   237,'2 ',     0.000,     0.000,    23.733,   -23.733,1.02040,     0,    71.200, 0.00000E+0, 1.89000E-1, 0.00000E+0, 0.00000E+0,1.00000,0,  100.0,    45.150,     0.000,   1,1.0000
   248,'99',     8.354,    11.702,    33.333,   -33.333,1.01823,     0,   100.000, 0.00000E+0, 1.00000E+0, 0.00000E+0, 0.00000E+0,1.00000,0,  100.0,   298.000,     8.354,   1,1.0000
   271,'99',    19.873,   -16.506,    13.211,   -16.514,1.01118,     0,   100.000, 0.00000E+0, 1.00000E+0, 0.00000E+0, 0.00000E+0,1.00000,1,  100.0,    50.412,    16.561,   1,1.0000
   275,'99',   107.810,   -27.492,    27.492,   -27.492,1.00419,     0,   100.000, 0.00000E+0, 1.00000E+0, 0.00000E+0, 0.00000E+0,1.00000,1,  100.0,   146.284,    89.842,   1,1.0000
   278,'99',    11.697,   -20.535,    24.497,   -24.497,1.00589,     0,   100.000, 0.00000E+0, 1.00000E+0, 0.00000E+0, 0.00000E+0,1.00000,1,  100.0,    26.697,     9.747,   1,1.0000
   280,'1 ',     0.000,     0.000,    23.733,   -23.733,1.02040,     0,    71.200, 0.00000E+0, 1.89000E-1, 0.00000E+0, 0.00000E+0,1.00000,0,  100.0,    45.150,     0.000,   1,1.0000
   280,'2 ',     0.000,     0.000,    23.733,   -23.733,1.02040,     0,    71.200, 0.00000E+0, 1.89000E-1, 0.00000E+0, 0.00000E+0,1.00000,0,  100.0,    45.150,     0.000,   1,1.0000
   281,'99',    23.155,    -8.554,   198.000,    -8.554,1.00482,     0,   100.000, 0.00000E+0, 1.00000E+0, 0.00000E+0, 0.00000E+0,1.00000,1,  100.0,    64.187,    19.296,   1,1.0000
   296,'1 ',   401.201,    -9.954,   101.000,   -99.000,1.03320,     0,   600.000, 3.00000E-3, 1.89650E-1, 0.00000E+0, 8.44000E-2,1.00000,1,  100.0,   825.299,   334.334,   1,1.0000
   296,'2 ',   411.768,   -10.216,   101.000,   -99.000,1.03320,     0,   600.000, 3.00000E-3, 1.89650E-1, 0.00000E+0, 8.44000E-2,1.00000,1,  100.0,   846.641,   343.140,   1,1.0000
   309,'1 ',     0.000,     0.000,    43.333,   -43.333,1.01310,     0,   130.000, 3.00000E-3, 1.64000E-1, 0.00000E+0, 0.00000E+0,1.00000,0,  100.0,   158.490,    28.500,   1,1.0000
   309,'2 ',     0.000,     0.000,    43.333,   -43.333,1.01310,     0,   130.000, 3.00000E-3, 1.64000E-1, 0.00000E+0, 0.00000E+0,1.00000,0,  100.0,   156.390,    28.500,   1,1.0000
   315,'1 ',     0.000,     0.000,    23.733,   -23.733,1.02040,     0,    71.200, 0.00000E+0, 1.89000E-1, 0.00000E+0, 0.00000E+0,1.00000,0,  100.0,    45.150,     0.000,   1,1.0000
   315,'2 ',     0.000,     0.000,    23.733,   -23.733,1.02040,     0,    71.200, 0.00000E+0, 1.89000E-1, 0.00000E+0, 0.00000E+0,1.00000,0,  100.0,    45.150,     0.000,   1,1.0000
   326,'99',    26.398,    19.385,   180.000,    -4.687,1.07538,     0,   100.000, 0.00000E+0, 1.00000E+0, 0.00000E+0, 0.00000E+0,1.00000,1,  100.0,    41.398,    21.998,   1,1.0000
   352,'1 ',     0.000,     0.000,    19.000,   -19.000,1.02713,   353,    57.000, 0.00000E+0, 1.43000E-1, 0.00000E+0, 0.00000E+0,1.00000,0,  100.0,    66.300,    51.300,   1,1.0000
   352,'2 ',     0.000,     0.000,    19.000,   -19.000,1.02713,   353,    57.000, 0.00000E+0, 1.43000E-1, 0.00000E+0, 0.00000E+0,1.00000,0,  100.0,    64.400,    49.400,   1,1.0000
   353,'99',    10.660,   246.406,    33.333,   -33.333,1.02713,     0,   100.000, 0.00000E+0, 1.00000E+0, 0.00000E+0, 0.00000E+0,1.00000,0,  100.0,    25.660,    10.660,   1,1.0000
   355,'1 ',     0.000,     0.000,     7.667,    -7.667,1.01850,   411,    23.000, 0.00000E+0, 1.52000E-1, 0.00000E+0, 0.00000E+0,1.00000,0,  100.0,    32.100,    17.100,   1,1.0000
   355,'2 ',     0.000,     0.000,     7.667,    -7.667,1.01850,   411,    23.000, 0.00000E+0, 1.52000E-1, 0.00000E+0, 0.00000E+0,1.00000,0,  100.0,    32.100,    17.100,   1,1.0000
   356,'1 ',     0.000,     0.000,    51.333,   -51.333,1.03310,   378,   154.000, 0.00000E+0, 3.20000E-1, 0.00000E+0, 0.00000E+0,1.00000,0,  100.0,   267.000,     0.000,   1,1.0000
   359,'1 ',     0.000,     0.000,     7.667,    -7.667,1.01850,   411,    23.000, 0.00000E+0, 1.52000E-1, 0.00000E+0, 0.00000E+0,1.00000,0,  100.0,    33.050,    18.050,   1,1.0000
   359,'2 ',     0.000,     0.000,     7.667,    -7.667,1.01850,   411,    23.000, 0.00000E+0, 1.52000E-1, 0.00000E+0, 0.00000E+0,1.00000,0,  100.0,    32.100,    17.100,   1,1.0000
   361,'1 ',     1.897,     0.600,   199.000,  -180.000,1.04000,     0,   100.000, 0.00000E+0, 1.00000E+0, 0.00000E+0, 0.00000E+0,1.00000,1,  100.0,   280.000,     0.000,   1,1.0000
   361,'2 ',    10.312,     3.261,   198.000,    -2.540,1.04000,     0,    71.000, 0.00000E+0, 1.32000E-1, 0.00000E+0, 0.00000E+0,1.00000,1,  100.0,    19.750,     4.750,   1,1.0000
...